REMARK  Name = aspirin
REMARK  5 active torsions:
REMARK  status: ('A' for Active; 'I' for Inactive)
REMARK    1  A    between atoms: C_1  and  C_2
REMARK    2  A    between atoms: C_2  and  O_4
REMARK    3  A    between atoms: O_4  and  C_5
REMARK    4  A    between atoms: C_10  and  C_11
REMARK    5  A    between atoms: C_11  and  O_13
REMARK                            x       y       z     vdW  Elec       q    Type
REMARK                         _______ _______ _______ _____ _____    ______ ____
ROOT
ATOM      1  C   UNL     1       4.643   0.752   0.858  0.00  0.00    +0.146 A 
ATOM      2  C   UNL     1       5.362   0.779  -0.341  0.00  0.00    +0.047 A 
ATOM      3  C   UNL     1       6.746   0.942  -0.323  0.00  0.00    +0.004 A 
ATOM      4  C   UNL     1       7.422   1.052   0.890  0.00  0.00    +0.001 A 
ATOM      5  C   UNL     1       6.714   0.985   2.091  0.00  0.00    +0.018 A 
ATOM      6  C   UNL     1       5.318   0.822   2.088  0.00  0.00    +0.101 A 
ENDROOT
BRANCH   6   7
ATOM      7  C   UNL     1       4.651   0.750   3.413  0.00  0.00    +0.340 C 
ATOM      8  O   UNL     1       5.091   1.307   4.406  0.00  0.00    -0.245 OA
BRANCH   7   9
ATOM      9  O   UNL     1       3.562  -0.048   3.444  0.00  0.00    -0.477 OA
ATOM     10  H   UNL     1       3.360  -0.477   2.592  0.00  0.00    +0.295 HD
ENDBRANCH   7   9
ENDBRANCH   6   7
BRANCH   1  11
ATOM     11  O   UNL     1       3.239   0.594   0.857  0.00  0.00    -0.425 OA
BRANCH  11  13
ATOM     12  C   UNL     1       1.015   0.951   0.138  0.00  0.00    +0.136 C 
ATOM     13  C   UNL     1       2.460   1.291  -0.075  0.00  0.00    +0.309 C 
ATOM     14  O   UNL     1       2.863   2.066  -0.930  0.00  0.00    -0.251 OA
ENDBRANCH  11  13
ENDBRANCH   1  11
TORSDOF 4
