REMARK  Name = caffeine
REMARK  3 active torsions:
REMARK  status: ('A' for Active; 'I' for Inactive)
REMARK    1  A    between atoms: C_1  and  N_2
REMARK    2  A    between atoms: N_6  and  C_7
REMARK    3  A    between atoms: N_10  and  C_11
REMARK                            x       y       z     vdW  Elec       q    Type
REMARK                         _______ _______ _______ _____ _____    ______ ____
ROOT
ATOM      1  C   UNL     1      -3.240  -1.152   0.033  0.00  0.00    +0.150 C 
ATOM      2  N   UNL     1      -2.266  -0.091   0.004  0.00  0.00    -0.328 N 
ATOM      3  C   UNL     1      -2.538   1.252  -0.007  0.00  0.00    +0.202 A 
ATOM      4  N   UNL     1      -1.434   1.971  -0.009  0.00  0.00    -0.218 NA
ATOM      5  C   UNL     1      -0.429   1.052  -0.002  0.00  0.00    +0.168 A 
ATOM      6  N   UNL     1       0.918   1.317   0.005  0.00  0.00    -0.280 N 
ATOM      7  C   UNL     1       1.430   2.671   0.011  0.00  0.00    +0.155 C 
ATOM      8  C   UNL     1       1.828   0.257   0.006  0.00  0.00    +0.333 A 
ATOM      9  O   UNL     1       3.045   0.464   0.003  0.00  0.00    -0.246 OA
ATOM     10  N   UNL     1       1.297  -1.046   0.011  0.00  0.00    -0.262 N 
ATOM     11  C   UNL     1       2.222  -2.163   0.023  0.00  0.00    +0.157 C 
ATOM     12  C   UNL     1      -0.066  -1.371   0.006  0.00  0.00    +0.282 A 
ATOM     13  O   UNL     1      -0.498  -2.519   0.008  0.00  0.00    -0.265 OA
ATOM     14  C   UNL     1      -0.907  -0.224   0.000  0.00  0.00    +0.151 A 
ENDROOT
TORSDOF 0
