ibuprofen
 OpenBabel08302513183D

 16 16  0  0  1  0  0  0  0  0999 V2000
   15.2090    2.8130   10.0480 C   0  0  0  0  0  0  0  0  0  0  0  0
   16.0120    3.1640   11.1390 C   0  0  0  0  0  3  0  0  0  0  0  0
   16.7610    4.3430   11.1250 C   0  0  0  0  0  3  0  0  0  0  0  0
   16.7360    5.1980   10.0130 C   0  0  0  0  0  0  0  0  0  0  0  0
   15.9830    4.8110    8.8950 C   0  0  0  0  0  3  0  0  0  0  0  0
   15.2210    3.6380    8.9160 C   0  0  0  0  0  3  0  0  0  0  0  0
   17.5480    6.4860   10.0310 C   0  0  1  0  0  3  0  0  0  0  0  0
   17.1640    7.3890    8.8600 C   0  0  0  0  0  1  0  0  0  0  0  0
   17.4660    7.2510   11.3520 C   0  0  0  0  0  0  0  0  0  0  0  0
   18.3880    7.3760   12.1480 O   0  0  0  0  0  0  0  0  0  0  0  0
   16.2400    7.7700   11.6020 O   0  0  0  0  0  0  0  0  0  0  0  0
   15.6070    7.6330   10.8720 H   0  0  0  0  0  0  0  0  0  0  0  0
   14.3120    1.5940   10.1080 C   0  0  0  0  0  2  0  0  0  0  0  0
   11.9370    1.4750   11.0170 C   0  0  0  0  0  1  0  0  0  0  0  0
   13.4240    1.5580   11.3720 C   0  0  0  0  0  3  0  0  0  0  0  0
   13.8020    0.3820   12.2760 C   0  0  0  0  0  1  0  0  0  0  0  0
  1 13  1  0  0  0  0
  1  2  1  0  0  0  0
  3  2  2  0  0  0  0
  4  7  1  0  0  0  0
  4  3  1  0  0  0  0
  5  6  1  0  0  0  0
  5  4  2  0  0  0  0
  6  1  2  0  0  0  0
  7  8  1  6  0  0  0
  7  9  1  0  0  0  0
  9 11  1  0  0  0  0
  9 10  2  0  0  0  0
 12 11  1  0  0  0  0
 13 15  1  0  0  0  0
 14 15  1  0  0  0  0
 15 16  1  0  0  0  0
M  END
>  <MODEL>
1

>  <REMARK>
 minimizedAffinity -4.45612383
 minimizedRMSD -1
  Name = ibuprofen
  8 active torsions:
  status: ('A' for Active; 'I' for Inactive)
    1  A    between atoms: C_1  and  C_2
    2  A    between atoms: C_2  and  C_3
    3  A    between atoms: C_2  and  C_4
    4  A    between atoms: C_4  and  C_5
    5  A    between atoms: C_8  and  C_11
    6  A    between atoms: C_11  and  C_12
    7  A    between atoms: C_11  and  C_13
    8  A    between atoms: C_13  and  O_15
                            x       y       z     vdW  Elec       q    Type
                         _______ _______ _______ _____ _____    ______ ____

>  <TORSDO>
F 5

$$$$
