MODEL 1
REMARK minimizedAffinity -3.66878963
REMARK minimizedRMSD -1
REMARK  Name = caffeine
REMARK  3 active torsions:
REMARK  status: ('A' for Active; 'I' for Inactive)
REMARK    1  A    between atoms: C_1  and  N_2
REMARK    2  A    between atoms: N_6  and  C_7
REMARK    3  A    between atoms: N_10  and  C_11
REMARK                            x       y       z     vdW  Elec       q    Type
REMARK                         _______ _______ _______ _____ _____    ______ ____
ROOT
ATOM      1  C   UNL     1      15.147   3.687   8.685  0.00  0.00    +0.150 C 
ATOM      2  N   UNL     1      16.105   4.544   9.336  0.00  0.00    -0.328 N 
ATOM      3  C   UNL     1      16.526   4.440  10.636  0.00  0.00    +0.202 A 
ATOM      4  N   UNL     1      17.426   5.356  10.929  0.00  0.00    -0.218 NA
ATOM      5  C   UNL     1      17.579   6.065   9.777  0.00  0.00    +0.168 A 
ATOM      6  N   UNL     1      18.423   7.130   9.581  0.00  0.00    -0.280 N 
ATOM      7  C   UNL     1      19.282   7.627  10.634  0.00  0.00    +0.155 C 
ATOM      8  C   UNL     1      18.459   7.759   8.334  0.00  0.00    +0.333 A 
ATOM      9  O   UNL     1      19.201   8.725   8.131  0.00  0.00    -0.246 OA
ATOM     10  N   UNL     1      17.619   7.244   7.330  0.00  0.00    -0.262 N 
ATOM     11  C   UNL     1      17.647   7.873   6.023  0.00  0.00    +0.157 C 
ATOM     12  C   UNL     1      16.743   6.161   7.476  0.00  0.00    +0.282 A 
ATOM     13  O   UNL     1      16.020   5.736   6.581  0.00  0.00    -0.265 OA
ATOM     14  C   UNL     1      16.777   5.595   8.781  0.00  0.00    +0.151 A 
ENDROOT
TORSDOF 0
ENDMDL
