caffeine
 OpenBabel08302513183D

 14 15  0  0  0  0  0  0  0  0999 V2000
   15.1470    3.6870    8.6850 C   0  0  0  0  0  1  0  0  0  0  0  0
   16.1050    4.5440    9.3360 N   0  0  0  0  0  0  0  0  0  0  0  0
   16.5260    4.4400   10.6360 C   0  0  0  0  0  3  0  0  0  0  0  0
   17.4260    5.3560   10.9290 N   0  0  0  0  0  0  0  0  0  0  0  0
   17.5790    6.0650    9.7770 C   0  0  0  0  0  0  0  0  0  0  0  0
   18.4230    7.1300    9.5810 N   0  0  0  0  0  0  0  0  0  0  0  0
   19.2820    7.6270   10.6340 C   0  0  0  0  0  1  0  0  0  0  0  0
   18.4590    7.7590    8.3340 C   0  0  0  0  0  0  0  0  0  0  0  0
   19.2010    8.7250    8.1310 O   0  0  0  0  0  0  0  0  0  0  0  0
   17.6190    7.2440    7.3300 N   0  0  0  0  0  0  0  0  0  0  0  0
   17.6470    7.8730    6.0230 C   0  0  0  0  0  1  0  0  0  0  0  0
   16.7430    6.1610    7.4760 C   0  0  0  0  0  0  0  0  0  0  0  0
   16.0200    5.7360    6.5810 O   0  0  0  0  0  0  0  0  0  0  0  0
   16.7770    5.5950    8.7810 C   0  0  0  0  0  0  0  0  0  0  0  0
  1  2  1  0  0  0  0
  2  3  1  0  0  0  0
  3  4  2  0  0  0  0
  5  4  1  0  0  0  0
  6  5  1  0  0  0  0
  6  7  1  0  0  0  0
  8  6  1  0  0  0  0
  9  8  2  0  0  0  0
 10 12  1  0  0  0  0
 10  8  1  0  0  0  0
 11 10  1  0  0  0  0
 12 14  1  0  0  0  0
 13 12  2  0  0  0  0
 14  2  1  0  0  0  0
 14  5  2  0  0  0  0
M  END
>  <MODEL>
1

>  <REMARK>
 minimizedAffinity -3.66878963
 minimizedRMSD -1
  Name = caffeine
  3 active torsions:
  status: ('A' for Active; 'I' for Inactive)
    1  A    between atoms: C_1  and  N_2
    2  A    between atoms: N_6  and  C_7
    3  A    between atoms: N_10  and  C_11
                            x       y       z     vdW  Elec       q    Type
                         _______ _______ _______ _____ _____    ______ ____

>  <TORSDO>
F 0

$$$$
