aspirin
 OpenBabel08302513183D

 14 14  0  0  0  0  0  0  0  0999 V2000
   13.5120    7.1840    2.0520 C   0  0  0  0  0  0  0  0  0  0  0  0
   14.2000    6.3520    2.9410 C   0  0  0  0  0  3  0  0  0  0  0  0
   14.0250    4.9710    2.8830 C   0  0  0  0  0  3  0  0  0  0  0  0
   13.1850    4.4110    1.9240 C   0  0  0  0  0  3  0  0  0  0  0  0
   12.5280    5.2330    1.0080 C   0  0  0  0  0  3  0  0  0  0  0  0
   12.6940    6.6280    1.0540 C   0  0  0  0  0  0  0  0  0  0  0  0
   11.9640    7.4220    0.0330 C   0  0  0  0  0  0  0  0  0  0  0  0
   11.8800    7.0800   -1.1350 O   0  0  0  0  0  0  0  0  0  0  0  0
   11.4690    8.5930    0.4900 O   0  0  0  0  0  0  0  0  0  0  0  0
   11.6610    8.7660    1.4300 H   0  0  0  0  0  0  0  0  0  0  0  0
   13.6730    8.5870    2.1010 O   0  0  0  0  0  0  0  0  0  0  0  0
   15.4740    9.0630    0.6450 C   0  0  0  0  0  1  0  0  0  0  0  0
   14.9570    9.1430    2.0510 C   0  0  0  0  0  0  0  0  0  0  0  0
   15.5790    9.6310    2.9830 O   0  0  0  0  0  0  0  0  0  0  0  0
  1 11  1  0  0  0  0
  1  2  1  0  0  0  0
  3  2  2  0  0  0  0
  4  3  1  0  0  0  0
  5  6  1  0  0  0  0
  5  4  2  0  0  0  0
  6  1  2  0  0  0  0
  7  9  1  0  0  0  0
  7  6  1  0  0  0  0
  8  7  2  0  0  0  0
  9 10  1  0  0  0  0
 12 13  1  0  0  0  0
 13 11  1  0  0  0  0
 13 14  2  0  0  0  0
M  END
>  <MODEL>
1

>  <REMARK>
 minimizedAffinity -3.95576906
 minimizedRMSD -1
  Name = aspirin
  5 active torsions:
  status: ('A' for Active; 'I' for Inactive)
    1  A    between atoms: C_1  and  C_2
    2  A    between atoms: C_2  and  O_4
    3  A    between atoms: O_4  and  C_5
    4  A    between atoms: C_10  and  C_11
    5  A    between atoms: C_11  and  O_13
                            x       y       z     vdW  Elec       q    Type
                         _______ _______ _______ _____ _____    ______ ____

>  <TORSDO>
F 4

$$$$
