MODEL 1
REMARK minimizedAffinity -3.95576906
REMARK minimizedRMSD -1
REMARK  Name = aspirin
REMARK  5 active torsions:
REMARK  status: ('A' for Active; 'I' for Inactive)
REMARK    1  A    between atoms: C_1  and  C_2
REMARK    2  A    between atoms: C_2  and  O_4
REMARK    3  A    between atoms: O_4  and  C_5
REMARK    4  A    between atoms: C_10  and  C_11
REMARK    5  A    between atoms: C_11  and  O_13
REMARK                            x       y       z     vdW  Elec       q    Type
REMARK                         _______ _______ _______ _____ _____    ______ ____
ROOT
ATOM      1  C   UNL     1      13.512   7.184   2.052  0.00  0.00    +0.146 A 
ATOM      2  C   UNL     1      14.200   6.352   2.941  0.00  0.00    +0.047 A 
ATOM      3  C   UNL     1      14.025   4.971   2.883  0.00  0.00    +0.004 A 
ATOM      4  C   UNL     1      13.185   4.411   1.924  0.00  0.00    +0.001 A 
ATOM      5  C   UNL     1      12.528   5.233   1.008  0.00  0.00    +0.018 A 
ATOM      6  C   UNL     1      12.694   6.628   1.054  0.00  0.00    +0.101 A 
ENDROOT
BRANCH   6   7
ATOM      7  C   UNL     1      11.964   7.422   0.033  0.00  0.00    +0.340 C 
ATOM      8  O   UNL     1      11.880   7.080  -1.135  0.00  0.00    -0.245 OA
BRANCH   7   9
ATOM      9  O   UNL     1      11.469   8.593   0.490  0.00  0.00    -0.477 OA
ATOM     10  H   UNL     1      11.661   8.766   1.430  0.00  0.00    +0.295 HD
ENDBRANCH   7   9
ENDBRANCH   6   7
BRANCH   1  11
ATOM     11  O   UNL     1      13.673   8.587   2.101  0.00  0.00    -0.425 OA
BRANCH  11  13
ATOM     12  C   UNL     1      15.474   9.063   0.645  0.00  0.00    +0.136 C 
ATOM     13  C   UNL     1      14.957   9.143   2.051  0.00  0.00    +0.309 C 
ATOM     14  O   UNL     1      15.579   9.631   2.983  0.00  0.00    -0.251 OA
ENDBRANCH  11  13
ENDBRANCH   1  11
TORSDOF 4
ENDMDL
