MODEL 1
REMARK minimizedAffinity -3.95902252
REMARK minimizedRMSD -1
REMARK  Name = aspirin
REMARK  5 active torsions:
REMARK  status: ('A' for Active; 'I' for Inactive)
REMARK    1  A    between atoms: C_1  and  C_2
REMARK    2  A    between atoms: C_2  and  O_4
REMARK    3  A    between atoms: O_4  and  C_5
REMARK    4  A    between atoms: C_10  and  C_11
REMARK    5  A    between atoms: C_11  and  O_13
REMARK                            x       y       z     vdW  Elec       q    Type
REMARK                         _______ _______ _______ _____ _____    ______ ____
ROOT
ATOM      1  C   UNL     1      13.492   7.154   2.061  0.00  0.00    +0.146 A 
ATOM      2  C   UNL     1      14.181   6.317   2.945  0.00  0.00    +0.047 A 
ATOM      3  C   UNL     1      14.014   4.936   2.874  0.00  0.00    +0.004 A 
ATOM      4  C   UNL     1      13.181   4.380   1.905  0.00  0.00    +0.001 A 
ATOM      5  C   UNL     1      12.523   5.208   0.995  0.00  0.00    +0.018 A 
ATOM      6  C   UNL     1      12.681   6.603   1.055  0.00  0.00    +0.101 A 
ENDROOT
BRANCH   6   7
ATOM      7  C   UNL     1      11.951   7.403   0.039  0.00  0.00    +0.340 C 
ATOM      8  O   UNL     1      11.851   7.058  -1.127  0.00  0.00    -0.245 OA
BRANCH   7   9
ATOM      9  O   UNL     1      11.477   8.583   0.496  0.00  0.00    -0.477 OA
ATOM     10  H   UNL     1      11.682   8.756   1.433  0.00  0.00    +0.295 HD
ENDBRANCH   7   9
ENDBRANCH   6   7
BRANCH   1  11
ATOM     11  O   UNL     1      13.646   8.557   2.124  0.00  0.00    -0.425 OA
BRANCH  11  13
ATOM     12  C   UNL     1      15.439   8.964   0.638  0.00  0.00    +0.136 C 
ATOM     13  C   UNL     1      14.924   9.123   2.038  0.00  0.00    +0.309 C 
ATOM     14  O   UNL     1      15.541   9.674   2.937  0.00  0.00    -0.251 OA
ENDBRANCH  11  13
ENDBRANCH   1  11
TORSDOF 4
ENDMDL
MODEL 2
REMARK minimizedAffinity -3.86376405
REMARK minimizedRMSD -1
REMARK  Name = aspirin
REMARK  5 active torsions:
REMARK  status: ('A' for Active; 'I' for Inactive)
REMARK    1  A    between atoms: C_1  and  C_2
REMARK    2  A    between atoms: C_2  and  O_4
REMARK    3  A    between atoms: O_4  and  C_5
REMARK    4  A    between atoms: C_10  and  C_11
REMARK    5  A    between atoms: C_11  and  O_13
REMARK                            x       y       z     vdW  Elec       q    Type
REMARK                         _______ _______ _______ _____ _____    ______ ____
ROOT
ATOM      1  C   UNL     1      13.391   6.897   2.445  0.00  0.00    +0.146 A 
ATOM      2  C   UNL     1      12.928   7.976   1.686  0.00  0.00    +0.047 A 
ATOM      3  C   UNL     1      12.064   7.757   0.615  0.00  0.00    +0.004 A 
ATOM      4  C   UNL     1      11.637   6.466   0.312  0.00  0.00    +0.001 A 
ATOM      5  C   UNL     1      12.065   5.390   1.091  0.00  0.00    +0.018 A 
ATOM      6  C   UNL     1      12.937   5.595   2.174  0.00  0.00    +0.101 A 
ENDROOT
BRANCH   6   7
ATOM      7  C   UNL     1      13.329   4.393   2.953  0.00  0.00    +0.340 C 
ATOM      8  O   UNL     1      13.899   3.437   2.452  0.00  0.00    -0.245 OA
BRANCH   7   9
ATOM      9  O   UNL     1      12.932   4.414   4.244  0.00  0.00    -0.477 OA
ATOM     10  H   UNL     1      12.434   5.214   4.493  0.00  0.00    +0.295 HD
ENDBRANCH   7   9
ENDBRANCH   6   7
BRANCH   1  11
ATOM     11  O   UNL     1      14.273   7.100   3.531  0.00  0.00    -0.425 OA
BRANCH  11  13
ATOM     12  C   UNL     1      16.410   6.811   2.561  0.00  0.00    +0.136 C 
ATOM     13  C   UNL     1      15.503   7.735   3.319  0.00  0.00    +0.309 C 
ATOM     14  O   UNL     1      15.815   8.862   3.675  0.00  0.00    -0.251 OA
ENDBRANCH  11  13
ENDBRANCH   1  11
TORSDOF 4
ENDMDL
MODEL 3
REMARK minimizedAffinity -3.76117826
REMARK minimizedRMSD -1
REMARK  Name = aspirin
REMARK  5 active torsions:
REMARK  status: ('A' for Active; 'I' for Inactive)
REMARK    1  A    between atoms: C_1  and  C_2
REMARK    2  A    between atoms: C_2  and  O_4
REMARK    3  A    between atoms: O_4  and  C_5
REMARK    4  A    between atoms: C_10  and  C_11
REMARK    5  A    between atoms: C_11  and  O_13
REMARK                            x       y       z     vdW  Elec       q    Type
REMARK                         _______ _______ _______ _____ _____    ______ ____
ROOT
ATOM      1  C   UNL     1      10.924   4.529  -0.835  0.00  0.00    +0.146 A 
ATOM      2  C   UNL     1      10.551   3.444  -0.037  0.00  0.00    +0.047 A 
ATOM      3  C   UNL     1       9.492   2.624  -0.423  0.00  0.00    +0.004 A 
ATOM      4  C   UNL     1       8.819   2.865  -1.618  0.00  0.00    +0.001 A 
ATOM      5  C   UNL     1       9.214   3.923  -2.439  0.00  0.00    +0.018 A 
ATOM      6  C   UNL     1      10.279   4.759  -2.062  0.00  0.00    +0.101 A 
ENDROOT
BRANCH   6   7
ATOM      7  C   UNL     1      10.636   5.851  -3.003  0.00  0.00    +0.340 C 
ATOM      8  O   UNL     1       9.800   6.551  -3.552  0.00  0.00    -0.245 OA
BRANCH   7   9
ATOM      9  O   UNL     1      11.958   5.953  -3.260  0.00  0.00    -0.477 OA
ATOM     10  H   UNL     1      12.504   5.290  -2.798  0.00  0.00    +0.295 HD
ENDBRANCH   7   9
ENDBRANCH   6   7
BRANCH   1  11
ATOM     11  O   UNL     1      11.991   5.375  -0.455  0.00  0.00    -0.425 OA
BRANCH  11  13
ATOM     12  C   UNL     1      12.259   6.123   1.771  0.00  0.00    +0.136 C 
ATOM     13  C   UNL     1      11.751   6.457   0.401  0.00  0.00    +0.309 C 
ATOM     14  O   UNL     1      11.224   7.519   0.105  0.00  0.00    -0.251 OA
ENDBRANCH  11  13
ENDBRANCH   1  11
TORSDOF 4
ENDMDL
MODEL 4
REMARK minimizedAffinity -3.71327066
REMARK minimizedRMSD -1
REMARK  Name = aspirin
REMARK  5 active torsions:
REMARK  status: ('A' for Active; 'I' for Inactive)
REMARK    1  A    between atoms: C_1  and  C_2
REMARK    2  A    between atoms: C_2  and  O_4
REMARK    3  A    between atoms: O_4  and  C_5
REMARK    4  A    between atoms: C_10  and  C_11
REMARK    5  A    between atoms: C_11  and  O_13
REMARK                            x       y       z     vdW  Elec       q    Type
REMARK                         _______ _______ _______ _____ _____    ______ ____
ROOT
ATOM      1  C   UNL     1      18.588   7.892   5.615  0.00  0.00    +0.146 A 
ATOM      2  C   UNL     1      19.856   8.352   5.985  0.00  0.00    +0.047 A 
ATOM      3  C   UNL     1      20.208   8.425   7.332  0.00  0.00    +0.004 A 
ATOM      4  C   UNL     1      19.309   8.015   8.314  0.00  0.00    +0.001 A 
ATOM      5  C   UNL     1      18.057   7.516   7.948  0.00  0.00    +0.018 A 
ATOM      6  C   UNL     1      17.688   7.438   6.594  0.00  0.00    +0.101 A 
ENDROOT
BRANCH   6   7
ATOM      7  C   UNL     1      16.342   6.884   6.299  0.00  0.00    +0.340 C 
ATOM      8  O   UNL     1      16.038   5.726   6.534  0.00  0.00    -0.245 OA
BRANCH   7   9
ATOM      9  O   UNL     1      15.511   7.747   5.677  0.00  0.00    -0.477 OA
ATOM     10  H   UNL     1      15.906   8.620   5.497  0.00  0.00    +0.295 HD
ENDBRANCH   7   9
ENDBRANCH   6   7
BRANCH   1  11
ATOM     11  O   UNL     1      18.213   7.818   4.255  0.00  0.00    -0.425 OA
BRANCH  11  13
ATOM     12  C   UNL     1      18.866   9.526   2.756  0.00  0.00    +0.136 C 
ATOM     13  C   UNL     1      17.757   8.966   3.595  0.00  0.00    +0.309 C 
ATOM     14  O   UNL     1      16.637   9.451   3.664  0.00  0.00    -0.251 OA
ENDBRANCH  11  13
ENDBRANCH   1  11
TORSDOF 4
ENDMDL
MODEL 5
REMARK minimizedAffinity -3.68878174
REMARK minimizedRMSD -1
REMARK  Name = aspirin
REMARK  5 active torsions:
REMARK  status: ('A' for Active; 'I' for Inactive)
REMARK    1  A    between atoms: C_1  and  C_2
REMARK    2  A    between atoms: C_2  and  O_4
REMARK    3  A    between atoms: O_4  and  C_5
REMARK    4  A    between atoms: C_10  and  C_11
REMARK    5  A    between atoms: C_11  and  O_13
REMARK                            x       y       z     vdW  Elec       q    Type
REMARK                         _______ _______ _______ _____ _____    ______ ____
ROOT
ATOM      1  C   UNL     1      12.841   4.885   0.976  0.00  0.00    +0.146 A 
ATOM      2  C   UNL     1      13.117   3.596   1.442  0.00  0.00    +0.047 A 
ATOM      3  C   UNL     1      12.281   2.535   1.099  0.00  0.00    +0.004 A 
ATOM      4  C   UNL     1      11.182   2.749   0.269  0.00  0.00    +0.001 A 
ATOM      5  C   UNL     1      10.926   4.026  -0.231  0.00  0.00    +0.018 A 
ATOM      6  C   UNL     1      11.760   5.106   0.107  0.00  0.00    +0.101 A 
ENDROOT
BRANCH   6   7
ATOM      7  C   UNL     1      11.416   6.425  -0.482  0.00  0.00    +0.340 C 
ATOM      8  O   UNL     1      11.341   6.613  -1.686  0.00  0.00    -0.245 OA
BRANCH   7   9
ATOM      9  O   UNL     1      11.273   7.417   0.423  0.00  0.00    -0.477 OA
ATOM     10  H   UNL     1      11.420   7.137   1.346  0.00  0.00    +0.295 HD
ENDBRANCH   7   9
ENDBRANCH   6   7
BRANCH   1  11
ATOM     11  O   UNL     1      13.675   5.973   1.319  0.00  0.00    -0.425 OA
BRANCH  11  13
ATOM     12  C   UNL     1      14.970   6.283   3.273  0.00  0.00    +0.136 C 
ATOM     13  C   UNL     1      13.638   6.497   2.618  0.00  0.00    +0.309 C 
ATOM     14  O   UNL     1      12.691   7.052   3.154  0.00  0.00    -0.251 OA
ENDBRANCH  11  13
ENDBRANCH   1  11
TORSDOF 4
ENDMDL
MODEL 6
REMARK minimizedAffinity -3.62990332
REMARK minimizedRMSD -1
REMARK  Name = aspirin
REMARK  5 active torsions:
REMARK  status: ('A' for Active; 'I' for Inactive)
REMARK    1  A    between atoms: C_1  and  C_2
REMARK    2  A    between atoms: C_2  and  O_4
REMARK    3  A    between atoms: O_4  and  C_5
REMARK    4  A    between atoms: C_10  and  C_11
REMARK    5  A    between atoms: C_11  and  O_13
REMARK                            x       y       z     vdW  Elec       q    Type
REMARK                         _______ _______ _______ _____ _____    ______ ____
ROOT
ATOM      1  C   UNL     1       9.658   3.812  -1.119  0.00  0.00    +0.146 A 
ATOM      2  C   UNL     1       9.131   3.532  -2.383  0.00  0.00    +0.047 A 
ATOM      3  C   UNL     1       9.415   4.369  -3.460  0.00  0.00    +0.004 A 
ATOM      4  C   UNL     1      10.247   5.474  -3.288  0.00  0.00    +0.001 A 
ATOM      5  C   UNL     1      10.808   5.735  -2.037  0.00  0.00    +0.018 A 
ATOM      6  C   UNL     1      10.529   4.900  -0.942  0.00  0.00    +0.101 A 
ENDROOT
BRANCH   6   7
ATOM      7  C   UNL     1      11.180   5.249   0.347  0.00  0.00    +0.340 C 
ATOM      8  O   UNL     1      11.146   6.373   0.822  0.00  0.00    -0.245 OA
BRANCH   7   9
ATOM      9  O   UNL     1      11.878   4.238   0.908  0.00  0.00    -0.477 OA
ATOM     10  H   UNL     1      11.868   3.413   0.390  0.00  0.00    +0.295 HD
ENDBRANCH   7   9
ENDBRANCH   6   7
BRANCH   1  11
ATOM     11  O   UNL     1       9.374   2.977  -0.015  0.00  0.00    -0.425 OA
BRANCH  11  13
ATOM     12  C   UNL     1       8.763   0.693  -0.038  0.00  0.00    +0.136 C 
ATOM     13  C   UNL     1       9.893   1.677   0.027  0.00  0.00    +0.309 C 
ATOM     14  O   UNL     1      11.072   1.363   0.096  0.00  0.00    -0.251 OA
ENDBRANCH  11  13
ENDBRANCH   1  11
TORSDOF 4
ENDMDL
MODEL 7
REMARK minimizedAffinity -3.61365294
REMARK minimizedRMSD -1
REMARK  Name = aspirin
REMARK  5 active torsions:
REMARK  status: ('A' for Active; 'I' for Inactive)
REMARK    1  A    between atoms: C_1  and  C_2
REMARK    2  A    between atoms: C_2  and  O_4
REMARK    3  A    between atoms: O_4  and  C_5
REMARK    4  A    between atoms: C_10  and  C_11
REMARK    5  A    between atoms: C_11  and  O_13
REMARK                            x       y       z     vdW  Elec       q    Type
REMARK                         _______ _______ _______ _____ _____    ______ ____
ROOT
ATOM      1  C   UNL     1      14.586   6.662   2.624  0.00  0.00    +0.146 A 
ATOM      2  C   UNL     1      13.723   5.563   2.565  0.00  0.00    +0.047 A 
ATOM      3  C   UNL     1      12.514   5.659   1.879  0.00  0.00    +0.004 A 
ATOM      4  C   UNL     1      12.171   6.841   1.227  0.00  0.00    +0.001 A 
ATOM      5  C   UNL     1      13.046   7.928   1.248  0.00  0.00    +0.018 A 
ATOM      6  C   UNL     1      14.269   7.846   1.937  0.00  0.00    +0.101 A 
ENDROOT
BRANCH   6   7
ATOM      7  C   UNL     1      15.141   9.047   1.895  0.00  0.00    +0.340 C 
ATOM      8  O   UNL     1      15.598   9.497   0.857  0.00  0.00    -0.245 OA
BRANCH   7   9
ATOM      9  O   UNL     1      15.450   9.552   3.109  0.00  0.00    -0.477 OA
ATOM     10  H   UNL     1      15.063   9.057   3.855  0.00  0.00    +0.295 HD
ENDBRANCH   7   9
ENDBRANCH   6   7
BRANCH   1  11
ATOM     11  O   UNL     1      15.812   6.584   3.320  0.00  0.00    -0.425 OA
BRANCH  11  13
ATOM     12  C   UNL     1      16.401   5.270   5.196  0.00  0.00    +0.136 C 
ATOM     13  C   UNL     1      15.819   6.568   4.721  0.00  0.00    +0.309 C 
ATOM     14  O   UNL     1      15.429   7.457   5.463  0.00  0.00    -0.251 OA
ENDBRANCH  11  13
ENDBRANCH   1  11
TORSDOF 4
ENDMDL
MODEL 8
REMARK minimizedAffinity -3.5925982
REMARK minimizedRMSD -1
REMARK  Name = aspirin
REMARK  5 active torsions:
REMARK  status: ('A' for Active; 'I' for Inactive)
REMARK    1  A    between atoms: C_1  and  C_2
REMARK    2  A    between atoms: C_2  and  O_4
REMARK    3  A    between atoms: O_4  and  C_5
REMARK    4  A    between atoms: C_10  and  C_11
REMARK    5  A    between atoms: C_11  and  O_13
REMARK                            x       y       z     vdW  Elec       q    Type
REMARK                         _______ _______ _______ _____ _____    ______ ____
ROOT
ATOM      1  C   UNL     1      17.301   8.932   3.906  0.00  0.00    +0.146 A 
ATOM      2  C   UNL     1      18.474   9.417   3.319  0.00  0.00    +0.047 A 
ATOM      3  C   UNL     1      19.707   8.863   3.659  0.00  0.00    +0.004 A 
ATOM      4  C   UNL     1      19.774   7.807   4.565  0.00  0.00    +0.001 A 
ATOM      5  C   UNL     1      18.603   7.293   5.123  0.00  0.00    +0.018 A 
ATOM      6  C   UNL     1      17.353   7.842   4.791  0.00  0.00    +0.101 A 
ENDROOT
BRANCH   6   7
ATOM      7  C   UNL     1      16.161   7.223   5.425  0.00  0.00    +0.340 C 
ATOM      8  O   UNL     1      16.154   6.835   6.582  0.00  0.00    -0.245 OA
BRANCH   7   9
ATOM      9  O   UNL     1      15.113   7.052   4.590  0.00  0.00    -0.477 OA
ATOM     10  H   UNL     1      15.280   7.353   3.677  0.00  0.00    +0.295 HD
ENDBRANCH   7   9
ENDBRANCH   6   7
BRANCH   1  11
ATOM     11  O   UNL     1      16.044   9.487   3.578  0.00  0.00    -0.425 OA
BRANCH  11  13
ATOM     12  C   UNL     1      15.541  10.762   1.652  0.00  0.00    +0.136 C 
ATOM     13  C   UNL     1      15.563   9.394   2.266  0.00  0.00    +0.309 C 
ATOM     14  O   UNL     1      15.219   8.376   1.684  0.00  0.00    -0.251 OA
ENDBRANCH  11  13
ENDBRANCH   1  11
TORSDOF 4
ENDMDL
MODEL 9
REMARK minimizedAffinity -3.5917325
REMARK minimizedRMSD -1
REMARK  Name = aspirin
REMARK  5 active torsions:
REMARK  status: ('A' for Active; 'I' for Inactive)
REMARK    1  A    between atoms: C_1  and  C_2
REMARK    2  A    between atoms: C_2  and  O_4
REMARK    3  A    between atoms: O_4  and  C_5
REMARK    4  A    between atoms: C_10  and  C_11
REMARK    5  A    between atoms: C_11  and  O_13
REMARK                            x       y       z     vdW  Elec       q    Type
REMARK                         _______ _______ _______ _____ _____    ______ ____
ROOT
ATOM      1  C   UNL     1      14.179   7.480   1.322  0.00  0.00    +0.146 A 
ATOM      2  C   UNL     1      13.256   7.822   0.329  0.00  0.00    +0.047 A 
ATOM      3  C   UNL     1      11.998   7.222   0.306  0.00  0.00    +0.004 A 
ATOM      4  C   UNL     1      11.646   6.299   1.288  0.00  0.00    +0.001 A 
ATOM      5  C   UNL     1      12.548   5.985   2.305  0.00  0.00    +0.018 A 
ATOM      6  C   UNL     1      13.820   6.581   2.340  0.00  0.00    +0.101 A 
ENDROOT
BRANCH   6   7
ATOM      7  C   UNL     1      14.709   6.194   3.465  0.00  0.00    +0.340 C 
ATOM      8  O   UNL     1      15.116   5.055   3.625  0.00  0.00    -0.245 OA
BRANCH   7   9
ATOM      9  O   UNL     1      14.963   7.191   4.340  0.00  0.00    -0.477 OA
ATOM     10  H   UNL     1      14.524   8.034   4.120  0.00  0.00    +0.295 HD
ENDBRANCH   7   9
ENDBRANCH   6   7
BRANCH   1  11
ATOM     11  O   UNL     1      15.460   8.074   1.355  0.00  0.00    -0.425 OA
BRANCH  11  13
ATOM     12  C   UNL     1      16.013  10.262   0.647  0.00  0.00    +0.136 C 
ATOM     13  C   UNL     1      15.605   9.394   1.801  0.00  0.00    +0.309 C 
ATOM     14  O   UNL     1      15.426   9.805   2.938  0.00  0.00    -0.251 OA
ENDBRANCH  11  13
ENDBRANCH   1  11
TORSDOF 4
ENDMDL
