MODEL 1
REMARK minimizedAffinity -4.45612383
REMARK minimizedRMSD -1
REMARK  Name = ibuprofen
REMARK  8 active torsions:
REMARK  status: ('A' for Active; 'I' for Inactive)
REMARK    1  A    between atoms: C_1  and  C_2
REMARK    2  A    between atoms: C_2  and  C_3
REMARK    3  A    between atoms: C_2  and  C_4
REMARK    4  A    between atoms: C_4  and  C_5
REMARK    5  A    between atoms: C_8  and  C_11
REMARK    6  A    between atoms: C_11  and  C_12
REMARK    7  A    between atoms: C_11  and  C_13
REMARK    8  A    between atoms: C_13  and  O_15
REMARK                            x       y       z     vdW  Elec       q    Type
REMARK                         _______ _______ _______ _____ _____    ______ ____
ROOT
ATOM      1  C   UNL     1      15.209   2.813  10.048  0.00  0.00    -0.047 A 
ATOM      2  C   UNL     1      16.012   3.164  11.139  0.00  0.00    +0.004 A 
ATOM      3  C   UNL     1      16.761   4.343  11.125  0.00  0.00    +0.005 A 
ATOM      4  C   UNL     1      16.736   5.198  10.013  0.00  0.00    -0.034 A 
ATOM      5  C   UNL     1      15.983   4.811   8.895  0.00  0.00    +0.005 A 
ATOM      6  C   UNL     1      15.221   3.638   8.916  0.00  0.00    +0.004 A 
ENDROOT
BRANCH   4   7
ATOM      7  C   UNL     1      17.548   6.486  10.031  0.00  0.00    +0.124 C 
ATOM      8  C   UNL     1      17.164   7.389   8.860  0.00  0.00    +0.024 C 
BRANCH   7   9
ATOM      9  C   UNL     1      17.466   7.251  11.352  0.00  0.00    +0.312 C 
ATOM     10  O   UNL     1      18.388   7.376  12.148  0.00  0.00    -0.250 OA
BRANCH   9  11
ATOM     11  O   UNL     1      16.240   7.770  11.602  0.00  0.00    -0.480 OA
ATOM     12  H   UNL     1      15.607   7.633  10.872  0.00  0.00    +0.295 HD
ENDBRANCH   9  11
ENDBRANCH   7   9
ENDBRANCH   4   7
BRANCH   1  13
ATOM     13  C   UNL     1      14.312   1.594  10.108  0.00  0.00    +0.038 C 
BRANCH  13  15
ATOM     14  C   UNL     1      11.937   1.475  11.017  0.00  0.00    +0.007 C 
ATOM     15  C   UNL     1      13.424   1.558  11.372  0.00  0.00    -0.013 C 
ATOM     16  C   UNL     1      13.802   0.382  12.276  0.00  0.00    +0.007 C 
ENDBRANCH  13  15
ENDBRANCH   1  13
TORSDOF 5
ENDMDL
