REMARK  Name = ibuprofen
REMARK  8 active torsions:
REMARK  status: ('A' for Active; 'I' for Inactive)
REMARK    1  A    between atoms: C_1  and  C_2
REMARK    2  A    between atoms: C_2  and  C_3
REMARK    3  A    between atoms: C_2  and  C_4
REMARK    4  A    between atoms: C_4  and  C_5
REMARK    5  A    between atoms: C_8  and  C_11
REMARK    6  A    between atoms: C_11  and  C_12
REMARK    7  A    between atoms: C_11  and  C_13
REMARK    8  A    between atoms: C_13  and  O_15
REMARK                            x       y       z     vdW  Elec       q    Type
REMARK                         _______ _______ _______ _____ _____    ______ ____
ROOT
ATOM      1  C   UNL     1       4.499   0.020  -1.618  0.00  0.00    -0.047 A 
ATOM      2  C   UNL     1       5.160  -1.187  -1.874  0.00  0.00    +0.004 A 
ATOM      3  C   UNL     1       6.556  -1.244  -1.908  0.00  0.00    +0.005 A 
ATOM      4  C   UNL     1       7.328  -0.091  -1.700  0.00  0.00    -0.034 A 
ATOM      5  C   UNL     1       6.662   1.129  -1.511  0.00  0.00    +0.005 A 
ATOM      6  C   UNL     1       5.265   1.182  -1.461  0.00  0.00    +0.004 A 
ENDROOT
BRANCH   4   7
ATOM      7  C   UNL     1       8.847  -0.185  -1.725  0.00  0.00    +0.124 C 
ATOM      8  C   UNL     1       9.382   0.016  -3.143  0.00  0.00    +0.024 C 
BRANCH   7   9
ATOM      9  C   UNL     1       9.543   0.761  -0.747  0.00  0.00    +0.312 C 
ATOM     10  O   UNL     1      10.362   1.616  -1.061  0.00  0.00    -0.250 OA
BRANCH   9  11
ATOM     11  O   UNL     1       9.201   0.551   0.547  0.00  0.00    -0.480 OA
ATOM     12  H   UNL     1       8.512  -0.132   0.658  0.00  0.00    +0.295 HD
ENDBRANCH   9  11
ENDBRANCH   7   9
ENDBRANCH   4   7
BRANCH   1  13
ATOM     13  C   UNL     1       2.992   0.060  -1.471  0.00  0.00    +0.038 C 
BRANCH  13  15
ATOM     14  C   UNL     1       3.036  -0.331   1.045  0.00  0.00    +0.007 C 
ATOM     15  C   UNL     1       2.476  -0.805  -0.299  0.00  0.00    -0.013 C 
ATOM     16  C   UNL     1       0.946  -0.802  -0.247  0.00  0.00    +0.007 C 
ENDBRANCH  13  15
ENDBRANCH   1  13
TORSDOF 5
