aspirin
 OpenBabel08302513053D

 21 21  0  0  0  0  0  0  0  0999 V2000
    1.0152    0.9506    0.1381 C   0  0  0  0  0  0  0  0  0  0  0  0
    2.4599    1.2906   -0.0752 C   0  0  0  0  0  0  0  0  0  0  0  0
    2.8629    2.0655   -0.9299 O   0  0  0  0  0  0  0  0  0  0  0  0
    3.2385    0.5939    0.8573 O   0  0  0  0  0  0  0  0  0  0  0  0
    4.6430    0.7516    0.8584 C   0  0  0  0  0  0  0  0  0  0  0  0
    5.3619    0.7793   -0.3409 C   0  0  0  0  0  0  0  0  0  0  0  0
    6.7464    0.9417   -0.3228 C   0  0  0  0  0  0  0  0  0  0  0  0
    7.4224    1.0515    0.8901 C   0  0  0  0  0  0  0  0  0  0  0  0
    6.7136    0.9854    2.0906 C   0  0  0  0  0  0  0  0  0  0  0  0
    5.3182    0.8217    2.0878 C   0  0  0  0  0  0  0  0  0  0  0  0
    4.6509    0.7497    3.4134 C   0  0  0  0  0  0  0  0  0  0  0  0
    5.0912    1.3070    4.4061 O   0  0  0  0  0  0  0  0  0  0  0  0
    3.5625   -0.0483    3.4437 O   0  0  0  0  0  0  0  0  0  0  0  0
    0.4176    1.4129   -0.6541 H   0  0  0  0  0  0  0  0  0  0  0  0
    0.6821    1.3401    1.1025 H   0  0  0  0  0  0  0  0  0  0  0  0
    0.8727   -0.1315    0.0852 H   0  0  0  0  0  0  0  0  0  0  0  0
    4.8591    0.6930   -1.3027 H   0  0  0  0  0  0  0  0  0  0  0  0
    7.2972    0.9924   -1.2589 H   0  0  0  0  0  0  0  0  0  0  0  0
    8.5012    1.1865    0.9022 H   0  0  0  0  0  0  0  0  0  0  0  0
    7.2536    1.0641    3.0346 H   0  0  0  0  0  0  0  0  0  0  0  0
    3.3596   -0.4767    2.5920 H   0  0  0  0  0  0  0  0  0  0  0  0
  1  2  1  0  0  0  0
  1 14  1  0  0  0  0
  1 15  1  0  0  0  0
  1 16  1  0  0  0  0
  2  3  2  0  0  0  0
  2  4  1  0  0  0  0
  4  5  1  0  0  0  0
  5  6  2  0  0  0  0
  5 10  1  0  0  0  0
  6  7  1  0  0  0  0
  6 17  1  0  0  0  0
  7  8  2  0  0  0  0
  7 18  1  0  0  0  0
  8  9  1  0  0  0  0
  8 19  1  0  0  0  0
  9 10  2  0  0  0  0
  9 20  1  0  0  0  0
 10 11  1  0  0  0  0
 11 12  2  0  0  0  0
 11 13  1  0  0  0  0
 13 21  1  0  0  0  0
M  END
$$$$
caffeine
 OpenBabel08302513053D

 24 25  0  0  0  0  0  0  0  0999 V2000
   -3.2403   -1.1521    0.0334 C   0  0  0  0  0  0  0  0  0  0  0  0
   -2.2664   -0.0908    0.0042 N   0  0  0  0  0  0  0  0  0  0  0  0
   -2.5384    1.2518   -0.0073 C   0  0  0  0  0  0  0  0  0  0  0  0
   -1.4341    1.9709   -0.0090 N   0  0  0  0  0  0  0  0  0  0  0  0
   -0.4290    1.0517   -0.0022 C   0  0  0  0  0  0  0  0  0  0  0  0
    0.9185    1.3169    0.0050 N   0  0  0  0  0  0  0  0  0  0  0  0
    1.4304    2.6715    0.0113 C   0  0  0  0  0  0  0  0  0  0  0  0
    1.8279    0.2570    0.0057 C   0  0  0  0  0  0  0  0  0  0  0  0
    3.0450    0.4637    0.0029 O   0  0  0  0  0  0  0  0  0  0  0  0
    1.2969   -1.0461    0.0105 N   0  0  0  0  0  0  0  0  0  0  0  0
    2.2216   -2.1631    0.0228 C   0  0  0  0  0  0  0  0  0  0  0  0
   -0.0656   -1.3705    0.0057 C   0  0  0  0  0  0  0  0  0  0  0  0
   -0.4980   -2.5194    0.0080 O   0  0  0  0  0  0  0  0  0  0  0  0
   -0.9071   -0.2240    0.0003 C   0  0  0  0  0  0  0  0  0  0  0  0
   -4.2459   -0.7242    0.0064 H   0  0  0  0  0  0  0  0  0  0  0  0
   -3.1068   -1.7192    0.9580 H   0  0  0  0  0  0  0  0  0  0  0  0
   -3.0894   -1.7910   -0.8401 H   0  0  0  0  0  0  0  0  0  0  0  0
   -3.5458    1.6491   -0.0107 H   0  0  0  0  0  0  0  0  0  0  0  0
    0.6269    3.4122    0.0414 H   0  0  0  0  0  0  0  0  0  0  0  0
    2.0326    2.8270   -0.8894 H   0  0  0  0  0  0  0  0  0  0  0  0
    2.0736    2.8046    0.8873 H   0  0  0  0  0  0  0  0  0  0  0  0
    3.2682   -1.8484    0.0290 H   0  0  0  0  0  0  0  0  0  0  0  0
    2.0436   -2.7824   -0.8623 H   0  0  0  0  0  0  0  0  0  0  0  0
    2.0310   -2.7712    0.9133 H   0  0  0  0  0  0  0  0  0  0  0  0
  1  2  1  0  0  0  0
  1 15  1  0  0  0  0
  1 16  1  0  0  0  0
  1 17  1  0  0  0  0
  2  3  1  0  0  0  0
  2 14  1  0  0  0  0
  3  4  2  0  0  0  0
  3 18  1  0  0  0  0
  4  5  1  0  0  0  0
  5  6  1  0  0  0  0
  5 14  2  0  0  0  0
  6  7  1  0  0  0  0
  6  8  1  0  0  0  0
  7 19  1  0  0  0  0
  7 20  1  0  0  0  0
  7 21  1  0  0  0  0
  8  9  2  0  0  0  0
  8 10  1  0  0  0  0
 10 11  1  0  0  0  0
 10 12  1  0  0  0  0
 11 22  1  0  0  0  0
 11 23  1  0  0  0  0
 11 24  1  0  0  0  0
 12 13  2  0  0  0  0
 12 14  1  0  0  0  0
M  END
$$$$
ibuprofen
 OpenBabel08302513053D

 33 33  0  0  1  0  0  0  0  0999 V2000
    3.0362   -0.3310    1.0448 C   0  0  0  0  0  0  0  0  0  0  0  0
    2.4757   -0.8055   -0.2993 C   0  0  0  0  0  0  0  0  0  0  0  0
    0.9462   -0.8021   -0.2472 C   0  0  0  0  0  0  0  0  0  0  0  0
    2.9919    0.0605   -1.4706 C   0  0  0  0  0  0  0  0  0  0  0  0
    4.4989    0.0200   -1.6177 C   0  0  0  0  0  0  0  0  0  0  0  0
    5.1598   -1.1866   -1.8743 C   0  0  0  0  0  0  0  0  0  0  0  0
    6.5565   -1.2437   -1.9083 C   0  0  0  0  0  0  0  0  0  0  0  0
    7.3281   -0.0909   -1.7003 C   0  0  0  0  0  0  0  0  0  0  0  0
    6.6625    1.1288   -1.5112 C   0  0  0  0  0  0  0  0  0  0  0  0
    5.2647    1.1817   -1.4614 C   0  0  0  0  0  0  0  0  0  0  0  0
    8.8471   -0.1851   -1.7252 C   0  0  3  0  0  0  0  0  0  0  0  0
    9.3816    0.0164   -3.1431 C   0  0  0  0  0  0  0  0  0  0  0  0
    9.5426    0.7606   -0.7474 C   0  0  0  0  0  0  0  0  0  0  0  0
   10.3616    1.6156   -1.0608 O   0  0  0  0  0  0  0  0  0  0  0  0
    9.2008    0.5514    0.5471 O   0  0  0  0  0  0  0  0  0  0  0  0
    2.6791   -0.9697    1.8592 H   0  0  0  0  0  0  0  0  0  0  0  0
    2.7308    0.6985    1.2589 H   0  0  0  0  0  0  0  0  0  0  0  0
    4.1298   -0.3713    1.0600 H   0  0  0  0  0  0  0  0  0  0  0  0
    2.7933   -1.8447   -0.4498 H   0  0  0  0  0  0  0  0  0  0  0  0
    0.5514    0.2105   -0.1135 H   0  0  0  0  0  0  0  0  0  0  0  0
    0.5882   -1.4153    0.5878 H   0  0  0  0  0  0  0  0  0  0  0  0
    0.5216   -1.2165   -1.1674 H   0  0  0  0  0  0  0  0  0  0  0  0
    2.6569    1.0974   -1.3331 H   0  0  0  0  0  0  0  0  0  0  0  0
    2.5452   -0.2790   -2.4144 H   0  0  0  0  0  0  0  0  0  0  0  0
    4.5888   -2.0993   -2.0318 H   0  0  0  0  0  0  0  0  0  0  0  0
    7.0333   -2.2029   -2.0992 H   0  0  0  0  0  0  0  0  0  0  0  0
    7.2200    2.0569   -1.3884 H   0  0  0  0  0  0  0  0  0  0  0  0
    4.7801    2.1393   -1.2820 H   0  0  0  0  0  0  0  0  0  0  0  0
    9.1434   -1.1947   -1.4035 H   0  0  0  0  0  0  0  0  0  0  0  0
    9.1241    1.0086   -3.5317 H   0  0  0  0  0  0  0  0  0  0  0  0
    8.9727   -0.7313   -3.8312 H   0  0  0  0  0  0  0  0  0  0  0  0
   10.4737   -0.0729   -3.1630 H   0  0  0  0  0  0  0  0  0  0  0  0
    8.5118   -0.1324    0.6576 H   0  0  0  0  0  0  0  0  0  0  0  0
  1  2  1  0  0  0  0
  1 16  1  0  0  0  0
  1 17  1  0  0  0  0
  1 18  1  0  0  0  0
  2  3  1  0  0  0  0
  2  4  1  0  0  0  0
  2 19  1  0  0  0  0
  3 20  1  0  0  0  0
  3 21  1  0  0  0  0
  3 22  1  0  0  0  0
  4  5  1  0  0  0  0
  4 23  1  0  0  0  0
  4 24  1  0  0  0  0
  5  6  2  0  0  0  0
  5 10  1  0  0  0  0
  6  7  1  0  0  0  0
  6 25  1  0  0  0  0
  7  8  2  0  0  0  0
  7 26  1  0  0  0  0
  8  9  1  0  0  0  0
  8 11  1  0  0  0  0
  9 10  2  0  0  0  0
  9 27  1  0  0  0  0
 10 28  1  0  0  0  0
 11 12  1  0  0  0  0
 11 13  1  0  0  0  0
 11 29  1  0  0  0  0
 12 30  1  0  0  0  0
 12 31  1  0  0  0  0
 12 32  1  0  0  0  0
 13 14  2  0  0  0  0
 13 15  1  0  0  0  0
 15 33  1  0  0  0  0
M  END
$$$$
