MODEL        1
REMARK  Name = aspirin
REMARK  5 active torsions:
REMARK  status: ('A' for Active; 'I' for Inactive)
REMARK    1  A    between atoms: C_1  and  C_2
REMARK    2  A    between atoms: C_2  and  O_4
REMARK    3  A    between atoms: O_4  and  C_5
REMARK    4  A    between atoms: C_10  and  C_11
REMARK    5  A    between atoms: C_11  and  O_13
REMARK                            x       y       z     vdW  Elec       q    Type
REMARK                         _______ _______ _______ _____ _____    ______ ____
ROOT
ATOM      1  C   UNL     1       4.643   0.752   0.858  0.00  0.00    +0.146 A 
ATOM      2  C   UNL     1       5.362   0.779  -0.341  0.00  0.00    +0.047 A 
ATOM      3  C   UNL     1       6.746   0.942  -0.323  0.00  0.00    +0.004 A 
ATOM      4  C   UNL     1       7.422   1.052   0.890  0.00  0.00    +0.001 A 
ATOM      5  C   UNL     1       6.714   0.985   2.091  0.00  0.00    +0.018 A 
ATOM      6  C   UNL     1       5.318   0.822   2.088  0.00  0.00    +0.101 A 
ENDROOT
BRANCH   6   7
ATOM      7  C   UNL     1       4.651   0.750   3.413  0.00  0.00    +0.340 C 
ATOM      8  O   UNL     1       5.091   1.307   4.406  0.00  0.00    -0.245 OA
BRANCH   7   9
ATOM      9  O   UNL     1       3.562  -0.048   3.444  0.00  0.00    -0.477 OA
ATOM     10  H   UNL     1       3.360  -0.477   2.592  0.00  0.00    +0.295 HD
ENDBRANCH   7   9
ENDBRANCH   6   7
BRANCH   1  11
ATOM     11  O   UNL     1       3.239   0.594   0.857  0.00  0.00    -0.425 OA
BRANCH  11  13
ATOM     12  C   UNL     1       1.015   0.951   0.138  0.00  0.00    +0.136 C 
ATOM     13  C   UNL     1       2.460   1.291  -0.075  0.00  0.00    +0.309 C 
ATOM     14  O   UNL     1       2.863   2.066  -0.930  0.00  0.00    -0.251 OA
ENDBRANCH  11  13
ENDBRANCH   1  11
TORSDOF 4
ENDMDL
MODEL        2
REMARK  Name = caffeine
REMARK  3 active torsions:
REMARK  status: ('A' for Active; 'I' for Inactive)
REMARK    1  A    between atoms: C_1  and  N_2
REMARK    2  A    between atoms: N_6  and  C_7
REMARK    3  A    between atoms: N_10  and  C_11
REMARK                            x       y       z     vdW  Elec       q    Type
REMARK                         _______ _______ _______ _____ _____    ______ ____
ROOT
ATOM      1  C   UNL     1      -3.240  -1.152   0.033  0.00  0.00    +0.150 C 
ATOM      2  N   UNL     1      -2.266  -0.091   0.004  0.00  0.00    -0.328 N 
ATOM      3  C   UNL     1      -2.538   1.252  -0.007  0.00  0.00    +0.202 A 
ATOM      4  N   UNL     1      -1.434   1.971  -0.009  0.00  0.00    -0.218 NA
ATOM      5  C   UNL     1      -0.429   1.052  -0.002  0.00  0.00    +0.168 A 
ATOM      6  N   UNL     1       0.918   1.317   0.005  0.00  0.00    -0.280 N 
ATOM      7  C   UNL     1       1.430   2.671   0.011  0.00  0.00    +0.155 C 
ATOM      8  C   UNL     1       1.828   0.257   0.006  0.00  0.00    +0.333 A 
ATOM      9  O   UNL     1       3.045   0.464   0.003  0.00  0.00    -0.246 OA
ATOM     10  N   UNL     1       1.297  -1.046   0.011  0.00  0.00    -0.262 N 
ATOM     11  C   UNL     1       2.222  -2.163   0.023  0.00  0.00    +0.157 C 
ATOM     12  C   UNL     1      -0.066  -1.371   0.006  0.00  0.00    +0.282 A 
ATOM     13  O   UNL     1      -0.498  -2.519   0.008  0.00  0.00    -0.265 OA
ATOM     14  C   UNL     1      -0.907  -0.224   0.000  0.00  0.00    +0.151 A 
ENDROOT
TORSDOF 0
ENDMDL
MODEL        3
REMARK  Name = ibuprofen
REMARK  8 active torsions:
REMARK  status: ('A' for Active; 'I' for Inactive)
REMARK    1  A    between atoms: C_1  and  C_2
REMARK    2  A    between atoms: C_2  and  C_3
REMARK    3  A    between atoms: C_2  and  C_4
REMARK    4  A    between atoms: C_4  and  C_5
REMARK    5  A    between atoms: C_8  and  C_11
REMARK    6  A    between atoms: C_11  and  C_12
REMARK    7  A    between atoms: C_11  and  C_13
REMARK    8  A    between atoms: C_13  and  O_15
REMARK                            x       y       z     vdW  Elec       q    Type
REMARK                         _______ _______ _______ _____ _____    ______ ____
ROOT
ATOM      1  C   UNL     1       4.499   0.020  -1.618  0.00  0.00    -0.047 A 
ATOM      2  C   UNL     1       5.160  -1.187  -1.874  0.00  0.00    +0.004 A 
ATOM      3  C   UNL     1       6.556  -1.244  -1.908  0.00  0.00    +0.005 A 
ATOM      4  C   UNL     1       7.328  -0.091  -1.700  0.00  0.00    -0.034 A 
ATOM      5  C   UNL     1       6.662   1.129  -1.511  0.00  0.00    +0.005 A 
ATOM      6  C   UNL     1       5.265   1.182  -1.461  0.00  0.00    +0.004 A 
ENDROOT
BRANCH   4   7
ATOM      7  C   UNL     1       8.847  -0.185  -1.725  0.00  0.00    +0.124 C 
ATOM      8  C   UNL     1       9.382   0.016  -3.143  0.00  0.00    +0.024 C 
BRANCH   7   9
ATOM      9  C   UNL     1       9.543   0.761  -0.747  0.00  0.00    +0.312 C 
ATOM     10  O   UNL     1      10.362   1.616  -1.061  0.00  0.00    -0.250 OA
BRANCH   9  11
ATOM     11  O   UNL     1       9.201   0.551   0.547  0.00  0.00    -0.480 OA
ATOM     12  H   UNL     1       8.512  -0.132   0.658  0.00  0.00    +0.295 HD
ENDBRANCH   9  11
ENDBRANCH   7   9
ENDBRANCH   4   7
BRANCH   1  13
ATOM     13  C   UNL     1       2.992   0.060  -1.471  0.00  0.00    +0.038 C 
BRANCH  13  15
ATOM     14  C   UNL     1       3.036  -0.331   1.045  0.00  0.00    +0.007 C 
ATOM     15  C   UNL     1       2.476  -0.805  -0.299  0.00  0.00    -0.013 C 
ATOM     16  C   UNL     1       0.946  -0.802  -0.247  0.00  0.00    +0.007 C 
ENDBRANCH  13  15
ENDBRANCH   1  13
TORSDOF 5
ENDMDL
