aspirin
     RDKit          3D

 21 21  0  0  0  0  0  0  0  0999 V2000
   -2.9589   -2.2461   -0.0322 C   0  0  0  0  0  0  0  0  0  0  0  0
   -2.0851   -1.1261   -0.4840 C   0  0  0  0  0  0  0  0  0  0  0  0
   -2.3806   -0.4930   -1.5337 O   0  0  0  0  0  0  0  0  0  0  0  0
   -0.8924   -0.8683    0.2039 O   0  0  0  0  0  0  0  0  0  0  0  0
   -0.0975    0.2795    0.0507 C   0  0  0  0  0  0  0  0  0  0  0  0
   -0.6802    1.5256   -0.2540 C   0  0  0  0  0  0  0  0  0  0  0  0
    0.1119    2.6656   -0.3916 C   0  0  0  0  0  0  0  0  0  0  0  0
    1.4913    2.5824   -0.2172 C   0  0  0  0  0  0  0  0  0  0  0  0
    2.0842    1.3605    0.1043 C   0  0  0  0  0  0  0  0  0  0  0  0
    1.3039    0.1970    0.2485 C   0  0  0  0  0  0  0  0  0  0  0  0
    1.9766   -1.0829    0.5928 C   0  0  0  0  0  0  0  0  0  0  0  0
    1.3187   -2.1518    0.7075 O   0  0  0  0  0  0  0  0  0  0  0  0
    3.3547   -1.1153    0.7930 O   0  0  0  0  0  0  0  0  0  0  0  0
   -4.0231   -2.0110   -0.2456 H   0  0  0  0  0  0  0  0  0  0  0  0
   -2.8386   -2.4017    1.0604 H   0  0  0  0  0  0  0  0  0  0  0  0
   -2.6739   -3.1760   -0.5665 H   0  0  0  0  0  0  0  0  0  0  0  0
   -1.7521    1.6260   -0.3565 H   0  0  0  0  0  0  0  0  0  0  0  0
   -0.3466    3.6179   -0.6250 H   0  0  0  0  0  0  0  0  0  0  0  0
    2.1032    3.4689   -0.3232 H   0  0  0  0  0  0  0  0  0  0  0  0
    3.1578    1.3293    0.2406 H   0  0  0  0  0  0  0  0  0  0  0  0
    3.8267   -1.9805    1.0277 H   0  0  0  0  0  0  0  0  0  0  0  0
  1  2  1  0
  2  3  2  0
  2  4  1  0
  4  5  1  0
  5  6  2  0
  6  7  1  0
  7  8  2  0
  8  9  1  0
  9 10  2  0
 10 11  1  0
 11 12  2  0
 11 13  1  0
 10  5  1  0
  1 14  1  0
  1 15  1  0
  1 16  1  0
  6 17  1  0
  7 18  1  0
  8 19  1  0
  9 20  1  0
 13 21  1  0
M  END
$$$$
caffeine
     RDKit          3D

 24 25  0  0  0  0  0  0  0  0999 V2000
   -2.9026   -1.6488   -0.1117 C   0  0  0  0  0  0  0  0  0  0  0  0
   -2.1150   -0.4206   -0.1366 N   0  0  0  0  0  0  0  0  0  0  0  0
   -2.5856    0.8505   -0.1683 C   0  0  0  0  0  0  0  0  0  0  0  0
   -1.5997    1.7853   -0.1808 N   0  0  0  0  0  0  0  0  0  0  0  0
   -0.4775    1.0378   -0.1541 C   0  0  0  0  0  0  0  0  0  0  0  0
    0.8059    1.4900   -0.1662 N   0  0  0  0  0  0  0  0  0  0  0  0
    1.0982    2.9296   -0.1756 C   0  0  0  0  0  0  0  0  0  0  0  0
    1.8202    0.5580   -0.1079 C   0  0  0  0  0  0  0  0  0  0  0  0
    3.0224    0.9473   -0.1036 O   0  0  0  0  0  0  0  0  0  0  0  0
    1.5358   -0.7973   -0.0554 N   0  0  0  0  0  0  0  0  0  0  0  0
    2.6357   -1.7763   -0.0352 C   0  0  0  0  0  0  0  0  0  0  0  0
    0.2304   -1.2331   -0.0883 C   0  0  0  0  0  0  0  0  0  0  0  0
   -0.0501   -2.4632   -0.0847 O   0  0  0  0  0  0  0  0  0  0  0  0
   -0.7790   -0.2802   -0.1259 C   0  0  0  0  0  0  0  0  0  0  0  0
   -2.6758   -2.2206    0.8125 H   0  0  0  0  0  0  0  0  0  0  0  0
   -3.9882   -1.4143   -0.1279 H   0  0  0  0  0  0  0  0  0  0  0  0
   -2.6593   -2.2679   -1.0006 H   0  0  0  0  0  0  0  0  0  0  0  0
   -3.6385    1.1011   -0.1824 H   0  0  0  0  0  0  0  0  0  0  0  0
    1.3202    3.2705    0.8576 H   0  0  0  0  0  0  0  0  0  0  0  0
    0.2425    3.5160   -0.5728 H   0  0  0  0  0  0  0  0  0  0  0  0
    1.9711    3.1460   -0.8280 H   0  0  0  0  0  0  0  0  0  0  0  0
    3.5044   -1.3898    0.5394 H   0  0  0  0  0  0  0  0  0  0  0  0
    2.9551   -1.9981   -1.0751 H   0  0  0  0  0  0  0  0  0  0  0  0
    2.3292   -2.7220    0.4606 H   0  0  0  0  0  0  0  0  0  0  0  0
  1  2  1  0
  2  3  1  0
  3  4  2  0
  4  5  1  0
  5  6  1  0
  6  7  1  0
  6  8  1  0
  8  9  2  0
  8 10  1  0
 10 11  1  0
 10 12  1  0
 12 13  2  0
 12 14  1  0
 14  2  1  0
 14  5  2  0
  1 15  1  0
  1 16  1  0
  1 17  1  0
  3 18  1  0
  7 19  1  0
  7 20  1  0
  7 21  1  0
 11 22  1  0
 11 23  1  0
 11 24  1  0
M  END
$$$$
ibuprofen
     RDKit          3D

 33 33  0  0  0  0  0  0  0  0999 V2000
    2.9239    1.5735   -0.0602 C   0  0  0  0  0  0  0  0  0  0  0  0
    3.1796    0.0696   -0.2391 C   0  0  0  0  0  0  0  0  0  0  0  0
    4.6783   -0.2267   -0.1054 C   0  0  0  0  0  0  0  0  0  0  0  0
    2.3792   -0.7692    0.7805 C   0  0  0  0  0  0  0  0  0  0  0  0
    0.8913   -0.6650    0.5563 C   0  0  0  0  0  0  0  0  0  0  0  0
    0.1068    0.1741    1.3620 C   0  0  0  0  0  0  0  0  0  0  0  0
   -1.2676    0.2866    1.1365 C   0  0  0  0  0  0  0  0  0  0  0  0
   -1.8827   -0.4354    0.0964 C   0  0  0  0  0  0  0  0  0  0  0  0
   -1.0919   -1.2724   -0.7098 C   0  0  0  0  0  0  0  0  0  0  0  0
    0.2827   -1.3836   -0.4834 C   0  0  0  0  0  0  0  0  0  0  0  0
   -3.3727   -0.3243   -0.1574 C   0  0  0  0  0  0  0  0  0  0  0  0
   -4.1790   -0.8633    1.0302 C   0  0  0  0  0  0  0  0  0  0  0  0
   -3.7499    1.0958   -0.4837 C   0  0  0  0  0  0  0  0  0  0  0  0
   -3.7692    1.4771   -1.6847 O   0  0  0  0  0  0  0  0  0  0  0  0
   -4.0300    2.0057    0.5328 O   0  0  0  0  0  0  0  0  0  0  0  0
    1.8585    1.8130   -0.2599 H   0  0  0  0  0  0  0  0  0  0  0  0
    3.1790    1.8948    0.9725 H   0  0  0  0  0  0  0  0  0  0  0  0
    3.5393    2.1559   -0.7788 H   0  0  0  0  0  0  0  0  0  0  0  0
    2.8692   -0.2184   -1.2682 H   0  0  0  0  0  0  0  0  0  0  0  0
    5.2534    0.3511   -0.8602 H   0  0  0  0  0  0  0  0  0  0  0  0
    4.8733   -1.3064   -0.2797 H   0  0  0  0  0  0  0  0  0  0  0  0
    5.0427    0.0449    0.9089 H   0  0  0  0  0  0  0  0  0  0  0  0
    2.6385   -0.4544    1.8159 H   0  0  0  0  0  0  0  0  0  0  0  0
    2.6716   -1.8388    0.6914 H   0  0  0  0  0  0  0  0  0  0  0  0
    0.5600    0.7459    2.1623 H   0  0  0  0  0  0  0  0  0  0  0  0
   -1.8503    0.9404    1.7723 H   0  0  0  0  0  0  0  0  0  0  0  0
   -1.5372   -1.8397   -1.5176 H   0  0  0  0  0  0  0  0  0  0  0  0
    0.8745   -2.0297   -1.1201 H   0  0  0  0  0  0  0  0  0  0  0  0
   -3.6476   -0.9514   -1.0355 H   0  0  0  0  0  0  0  0  0  0  0  0
   -3.9816   -0.2775    1.9531 H   0  0  0  0  0  0  0  0  0  0  0  0
   -5.2659   -0.8149    0.8046 H   0  0  0  0  0  0  0  0  0  0  0  0
   -3.9103   -1.9247    1.2192 H   0  0  0  0  0  0  0  0  0  0  0  0
   -4.2660    2.9673    0.3191 H   0  0  0  0  0  0  0  0  0  0  0  0
  1  2  1  0
  2  3  1  0
  2  4  1  0
  4  5  1  0
  5  6  2  0
  6  7  1  0
  7  8  2  0
  8  9  1  0
  9 10  2  0
  8 11  1  0
 11 12  1  0
 11 13  1  0
 13 14  2  0
 13 15  1  0
 10  5  1  0
  1 16  1  0
  1 17  1  0
  1 18  1  0
  2 19  1  0
  3 20  1  0
  3 21  1  0
  3 22  1  0
  4 23  1  0
  4 24  1  0
  6 25  1  0
  7 26  1  0
  9 27  1  0
 10 28  1  0
 11 29  1  0
 12 30  1  0
 12 31  1  0
 12 32  1  0
 15 33  1  0
M  END
$$$$
